// Generated for: spectre
// Generated on: Jul 16 07:15:46 2026
// Design library name: ESD_Protection_gpdk090
// Design cell name: GGNMOS_ESD_macro_tb
// Design view name: Schematic
simulator lang=spectre
global 0
parameters gav=1u rsub=10k Ipad=1u
include "/home/work/gpdk090_v4.6/libs.oa22/gpdk090/../../models/spectre/gpdk090.scs" section=NN

// Library name: ESD_Protection_gpdk090
// Cell name: GGNMOS_ESD_macro
// View name: schematic
subckt GGNMOS_ESD_macro GND PAD
    M0 (net9 GND GND GND) gpdk090_nmos2v w=(30u) l=280n as=6.3p ad=5.4p \
        ps=37.92u pd=30.36u m=(1)*(8) simM=(1)*(8)
    I3 (PAD GND) avalanche_gen Vbr=9 Iscl=1e-09 Vsharp=0.5
    R0 (sub GND) resistor r=rsub
    Q1 (net9 sub GND) gpdk090_npn area=0.36 m=4
ends GGNMOS_ESD_macro
// End of subcircuit definition.

// Library name: ESD_Protection_gpdk090
// Cell name: GGNMOS_ESD_macro_tb
// View name: Schematic
I8 (0 net2) GGNMOS_ESD_macro
I7 (0 net2) isource dc=Ipad type=dc
simulatorOptions options reltol=1e-3 vabstol=1e-6 iabstol=1e-12 temp=27 \
    tnom=27 scalem=1.0 scale=1.0 gmin=1e-12 rforce=1 maxnotes=5 maxwarns=5 \
    digits=5 cols=80 pivrel=1e-3 sensfile="../psf/sens.output" \
    checklimitdest=psf 
dc dc param=Ipad start=1n stop=100m dec=20 write="spectre.dc" \
    oppoint=rawfile maxiters=150 maxsteps=10000 annotate=status 
modelParameter info what=models where=rawfile
element info what=inst where=rawfile
outputParameter info what=output where=rawfile
designParamVals info what=parameters where=rawfile
primitives info what=primitives where=rawfile
subckts info what=subckts where=rawfile
saveOptions options save=allpub
ahdl_include "/home/work/ESD_Protection_gpdk090/avalanche_gen/veriloga/veriloga.va"
